
* cell custom_sram_1r1w_32_256_freepdk45
* pin addr0[0]
* pin addr0[1]
* pin din0[0]
* pin din0[1]
* pin din0[2]
* pin din0[3]
* pin din0[4]
* pin din0[5]
* pin din0[6]
* pin din0[7]
* pin din0[8]
* pin din0[9]
* pin din0[10]
* pin din0[11]
* pin din0[12]
* pin din0[13]
* pin din0[14]
* pin din0[15]
* pin din0[16]
* pin din0[17]
* pin din0[18]
* pin din0[19]
* pin din0[20]
* pin din0[21]
* pin din0[22]
* pin din0[23]
* pin din0[24]
* pin din0[25]
* pin din0[26]
* pin din0[27]
* pin din0[28]
* pin din0[29]
* pin din0[30]
* pin din0[31]
* pin csb0
* pin clk0
* pin addr1[7]
* pin addr1[6]
* pin addr1[5]
* pin addr1[4]
* pin addr1[3]
* pin addr1[2]
* pin addr0[5]
* pin addr0[4]
* pin addr0[3]
* pin addr0[2]
* pin addr0[6]
* pin addr0[7]
* pin dout1[0]
* pin dout1[1]
* pin dout1[2]
* pin dout1[3]
* pin dout1[4]
* pin dout1[5]
* pin dout1[6]
* pin dout1[7]
* pin dout1[8]
* pin dout1[9]
* pin dout1[10]
* pin dout1[11]
* pin dout1[12]
* pin dout1[13]
* pin dout1[14]
* pin dout1[15]
* pin dout1[16]
* pin dout1[17]
* pin dout1[18]
* pin dout1[19]
* pin dout1[20]
* pin dout1[21]
* pin dout1[22]
* pin dout1[23]
* pin dout1[24]
* pin dout1[25]
* pin dout1[26]
* pin dout1[27]
* pin dout1[28]
* pin dout1[29]
* pin dout1[30]
* pin dout1[31]
* pin clk1
* pin csb1
* pin addr1[1]
* pin addr1[0]
* pin NWELL
* pin BULK,PWELL
.SUBCKT custom_sram_1r1w_32_256_freepdk45 2 3 4 5 6 7 8 9 10 11 12 13 14 15 16
+ 17 18 19 20 21 22 23 24 25 26 27 28 29 30 31 32 33 34 35 36 37 39 40 42 46 49
+ 52 55 56 57 58 63 65 71 72 73 74 75 76 77 78 79 80 81 82 83 84 85 86 87 88 89
+ 90 91 92 93 94 95 96 97 98 99 100 101 102 103 104 105 106 107 108
* net 2 addr0[0]
* net 3 addr0[1]
* net 4 din0[0]
* net 5 din0[1]
* net 6 din0[2]
* net 7 din0[3]
* net 8 din0[4]
* net 9 din0[5]
* net 10 din0[6]
* net 11 din0[7]
* net 12 din0[8]
* net 13 din0[9]
* net 14 din0[10]
* net 15 din0[11]
* net 16 din0[12]
* net 17 din0[13]
* net 18 din0[14]
* net 19 din0[15]
* net 20 din0[16]
* net 21 din0[17]
* net 22 din0[18]
* net 23 din0[19]
* net 24 din0[20]
* net 25 din0[21]
* net 26 din0[22]
* net 27 din0[23]
* net 28 din0[24]
* net 29 din0[25]
* net 30 din0[26]
* net 31 din0[27]
* net 32 din0[28]
* net 33 din0[29]
* net 34 din0[30]
* net 35 din0[31]
* net 36 csb0
* net 37 clk0
* net 39 addr1[7]
* net 40 addr1[6]
* net 42 addr1[5]
* net 46 addr1[4]
* net 49 addr1[3]
* net 52 addr1[2]
* net 55 addr0[5]
* net 56 addr0[4]
* net 57 addr0[3]
* net 58 addr0[2]
* net 63 addr0[6]
* net 65 addr0[7]
* net 71 dout1[0]
* net 72 dout1[1]
* net 73 dout1[2]
* net 74 dout1[3]
* net 75 dout1[4]
* net 76 dout1[5]
* net 77 dout1[6]
* net 78 dout1[7]
* net 79 dout1[8]
* net 80 dout1[9]
* net 81 dout1[10]
* net 82 dout1[11]
* net 83 dout1[12]
* net 84 dout1[13]
* net 85 dout1[14]
* net 86 dout1[15]
* net 87 dout1[16]
* net 88 dout1[17]
* net 89 dout1[18]
* net 90 dout1[19]
* net 91 dout1[20]
* net 92 dout1[21]
* net 93 dout1[22]
* net 94 dout1[23]
* net 95 dout1[24]
* net 96 dout1[25]
* net 97 dout1[26]
* net 98 dout1[27]
* net 99 dout1[28]
* net 100 dout1[29]
* net 101 dout1[30]
* net 102 dout1[31]
* net 103 clk1
* net 104 csb1
* net 105 addr1[1]
* net 106 addr1[0]
* net 107 NWELL
* net 108 BULK,PWELL
* cell instance $1 r0 *1 0.07,4.025
X$1 1 36 50 38 45 43 37 107 108
+ custom_sram_1r1w_32_256_freepdk45_control_logic_w
* cell instance $2 r0 *1 15.83,48.615
X$2 58 59 57 60 56 61 55 62 63 64 65 67 1 107 108
+ custom_sram_1r1w_32_256_freepdk45_row_addr_dff
* cell instance $3 r0 *1 27.27,0
X$3 1 4 133 5 142 6 139 7 113 8 136 9 132 10 125 11 141 12 138 13 115 14 130 15
+ 135 16 128 17 131 18 126 19 124 20 140 21 123 22 122 23 121 24 120 25 119 26
+ 118 27 117 28 137 29 116 30 114 31 129 32 112 33 134 34 127 35 111 107 108
+ custom_sram_1r1w_32_256_freepdk45_data_dff
* cell instance $4 r0 *1 21.55,0
X$4 2 144 3 143 1 107 108 custom_sram_1r1w_32_256_freepdk45_col_addr_dff
* cell instance $44 r0 *1 18.97,8.35
X$44 144 133 142 139 113 136 132 125 141 138 115 130 135 128 131 126 124 140
+ 123 122 121 120 119 118 117 137 116 114 129 112 134 127 111 38 143 43 45 59
+ 60 61 62 64 67 50 66 41 44 48 47 51 54 70 71 72 73 74 75 76 77 78 79 80 81 82
+ 83 84 85 86 87 88 89 90 91 92 93 94 95 96 97 98 99 100 101 102 68 69 110 109
+ 107 108 custom_sram_1r1w_32_256_freepdk45_bank
* cell instance $47 r180 *1 269.275,24.695
X$47 52 54 49 51 46 47 42 48 40 44 39 41 53 107 108
+ custom_sram_1r1w_32_256_freepdk45_row_addr_dff
* cell instance $70 r180 *1 285.035,138.395
X$70 53 104 66 68 70 69 103 107 108
+ custom_sram_1r1w_32_256_freepdk45_control_logic_r
* cell instance $71 r180 *1 260.695,139.77
X$71 106 109 105 110 53 107 108 custom_sram_1r1w_32_256_freepdk45_col_addr_dff
.ENDS custom_sram_1r1w_32_256_freepdk45

* cell custom_sram_1r1w_32_256_freepdk45_row_addr_dff
* pin din_0
* pin dout_0
* pin din_1
* pin dout_1
* pin din_2
* pin dout_2
* pin din_3
* pin dout_3
* pin din_4
* pin dout_4
* pin din_5
* pin dout_5
* pin clk
* pin vdd
* pin gnd
.SUBCKT custom_sram_1r1w_32_256_freepdk45_row_addr_dff 1 2 3 4 5 6 7 8 9 10 11
+ 12 13 14 15
* net 1 din_0
* net 2 dout_0
* net 3 din_1
* net 4 dout_1
* net 5 din_2
* net 6 dout_2
* net 7 din_3
* net 8 dout_3
* net 9 din_4
* net 10 dout_4
* net 11 din_5
* net 12 dout_5
* net 13 clk
* net 14 vdd
* net 15 gnd
* cell instance $1 r0 *1 0,0
X$1 2 1 13 14 15 dff
* cell instance $2 m0 *1 0,4.94
X$2 4 3 13 14 15 dff
* cell instance $3 r0 *1 0,4.94
X$3 6 5 13 14 15 dff
* cell instance $4 m0 *1 0,9.88
X$4 8 7 13 14 15 dff
* cell instance $5 r0 *1 0,9.88
X$5 10 9 13 14 15 dff
* cell instance $6 m0 *1 0,14.82
X$6 12 11 13 14 15 dff
.ENDS custom_sram_1r1w_32_256_freepdk45_row_addr_dff

* cell custom_sram_1r1w_32_256_freepdk45_data_dff
* pin clk
* pin din_0
* pin dout_0
* pin din_1
* pin dout_1
* pin din_2
* pin dout_2
* pin din_3
* pin dout_3
* pin din_4
* pin dout_4
* pin din_5
* pin dout_5
* pin din_6
* pin dout_6
* pin din_7
* pin dout_7
* pin din_8
* pin dout_8
* pin din_9
* pin dout_9
* pin din_10
* pin dout_10
* pin din_11
* pin dout_11
* pin din_12
* pin dout_12
* pin din_13
* pin dout_13
* pin din_14
* pin dout_14
* pin din_15
* pin dout_15
* pin din_16
* pin dout_16
* pin din_17
* pin dout_17
* pin din_18
* pin dout_18
* pin din_19
* pin dout_19
* pin din_20
* pin dout_20
* pin din_21
* pin dout_21
* pin din_22
* pin dout_22
* pin din_23
* pin dout_23
* pin din_24
* pin dout_24
* pin din_25
* pin dout_25
* pin din_26
* pin dout_26
* pin din_27
* pin dout_27
* pin din_28
* pin dout_28
* pin din_29
* pin dout_29
* pin din_30
* pin dout_30
* pin din_31
* pin dout_31
* pin vdd
* pin gnd
.SUBCKT custom_sram_1r1w_32_256_freepdk45_data_dff 1 2 3 4 5 6 7 8 9 10 11 12
+ 13 14 15 16 17 18 19 20 21 22 23 24 25 26 27 28 29 30 31 32 33 34 35 36 37 38
+ 39 40 41 42 43 44 45 46 47 48 49 50 51 52 53 54 55 56 57 58 59 60 61 62 63 64
+ 65 66 67
* net 1 clk
* net 2 din_0
* net 3 dout_0
* net 4 din_1
* net 5 dout_1
* net 6 din_2
* net 7 dout_2
* net 8 din_3
* net 9 dout_3
* net 10 din_4
* net 11 dout_4
* net 12 din_5
* net 13 dout_5
* net 14 din_6
* net 15 dout_6
* net 16 din_7
* net 17 dout_7
* net 18 din_8
* net 19 dout_8
* net 20 din_9
* net 21 dout_9
* net 22 din_10
* net 23 dout_10
* net 24 din_11
* net 25 dout_11
* net 26 din_12
* net 27 dout_12
* net 28 din_13
* net 29 dout_13
* net 30 din_14
* net 31 dout_14
* net 32 din_15
* net 33 dout_15
* net 34 din_16
* net 35 dout_16
* net 36 din_17
* net 37 dout_17
* net 38 din_18
* net 39 dout_18
* net 40 din_19
* net 41 dout_19
* net 42 din_20
* net 43 dout_20
* net 44 din_21
* net 45 dout_21
* net 46 din_22
* net 47 dout_22
* net 48 din_23
* net 49 dout_23
* net 50 din_24
* net 51 dout_24
* net 52 din_25
* net 53 dout_25
* net 54 din_26
* net 55 dout_26
* net 56 din_27
* net 57 dout_27
* net 58 din_28
* net 59 dout_28
* net 60 din_29
* net 61 dout_29
* net 62 din_30
* net 63 dout_30
* net 64 din_31
* net 65 dout_31
* net 66 vdd
* net 67 gnd
* cell instance $1 r0 *1 88.66,0
X$1 65 64 1 66 67 dff
* cell instance $2 r0 *1 85.8,0
X$2 63 62 1 66 67 dff
* cell instance $3 r0 *1 82.94,0
X$3 61 60 1 66 67 dff
* cell instance $4 r0 *1 80.08,0
X$4 59 58 1 66 67 dff
* cell instance $5 r0 *1 77.22,0
X$5 57 56 1 66 67 dff
* cell instance $6 r0 *1 74.36,0
X$6 55 54 1 66 67 dff
* cell instance $7 r0 *1 71.5,0
X$7 53 52 1 66 67 dff
* cell instance $8 r0 *1 68.64,0
X$8 51 50 1 66 67 dff
* cell instance $9 r0 *1 65.78,0
X$9 49 48 1 66 67 dff
* cell instance $10 r0 *1 62.92,0
X$10 47 46 1 66 67 dff
* cell instance $11 r0 *1 60.06,0
X$11 45 44 1 66 67 dff
* cell instance $12 r0 *1 57.2,0
X$12 43 42 1 66 67 dff
* cell instance $13 r0 *1 54.34,0
X$13 41 40 1 66 67 dff
* cell instance $14 r0 *1 51.48,0
X$14 39 38 1 66 67 dff
* cell instance $15 r0 *1 48.62,0
X$15 37 36 1 66 67 dff
* cell instance $16 r0 *1 45.76,0
X$16 35 34 1 66 67 dff
* cell instance $17 r0 *1 2.86,0
X$17 5 4 1 66 67 dff
* cell instance $18 r0 *1 5.72,0
X$18 7 6 1 66 67 dff
* cell instance $19 r0 *1 8.58,0
X$19 9 8 1 66 67 dff
* cell instance $20 r0 *1 11.44,0
X$20 11 10 1 66 67 dff
* cell instance $21 r0 *1 14.3,0
X$21 13 12 1 66 67 dff
* cell instance $22 r0 *1 17.16,0
X$22 15 14 1 66 67 dff
* cell instance $23 r0 *1 20.02,0
X$23 17 16 1 66 67 dff
* cell instance $24 r0 *1 22.88,0
X$24 19 18 1 66 67 dff
* cell instance $25 r0 *1 25.74,0
X$25 21 20 1 66 67 dff
* cell instance $26 r0 *1 28.6,0
X$26 23 22 1 66 67 dff
* cell instance $27 r0 *1 31.46,0
X$27 25 24 1 66 67 dff
* cell instance $28 r0 *1 34.32,0
X$28 27 26 1 66 67 dff
* cell instance $29 r0 *1 37.18,0
X$29 29 28 1 66 67 dff
* cell instance $30 r0 *1 40.04,0
X$30 31 30 1 66 67 dff
* cell instance $31 r0 *1 0,0
X$31 3 2 1 66 67 dff
* cell instance $32 r0 *1 42.9,0
X$32 33 32 1 66 67 dff
.ENDS custom_sram_1r1w_32_256_freepdk45_data_dff

* cell custom_sram_1r1w_32_256_freepdk45_control_logic_w
* pin clk_buf
* pin csb
* pin wl_en
* pin w_en
* pin rbl_bl
* pin p_en_bar
* pin clk
* pin vdd
* pin gnd
.SUBCKT custom_sram_1r1w_32_256_freepdk45_control_logic_w 7 9 10 11 12 13 14 15
+ 16
* net 7 clk_buf
* net 9 csb
* net 10 wl_en
* net 11 w_en
* net 12 rbl_bl
* net 13 p_en_bar
* net 14 clk
* net 15 vdd
* net 16 gnd
* cell instance $1 r0 *1 6.105,9.88
X$1 6 4 1 15 16 custom_sram_1r1w_32_256_freepdk45_pnand2_1
* cell instance $2 r0 *1 7.0075,9.88
X$2 13 1 15 16 custom_sram_1r1w_32_256_freepdk45_pdriver_5
* cell instance $3 m0 *1 6.7925,4.94
X$3 5 2 8 15 16 custom_sram_1r1w_32_256_freepdk45_pand2_0
* cell instance $4 m0 *1 6.105,4.94
X$4 7 2 15 16 custom_sram_1r1w_32_256_freepdk45_pinv_4
* cell instance $5 m0 *1 6.105,9.88
X$5 11 8 3 5 15 16 custom_sram_1r1w_32_256_freepdk45_pand3
* cell instance $8 m0 *1 6.105,14.82
X$8 4 3 15 16 custom_sram_1r1w_32_256_freepdk45_pinv_4
* cell instance $11 m0 *1 0,32.11
X$11 4 12 15 16 custom_sram_1r1w_32_256_freepdk45_delay_chain
* cell instance $16 r0 *1 6.105,14.82
X$16 10 5 15 16 custom_sram_1r1w_32_256_freepdk45_pdriver_2
* cell instance $23 r0 *1 6.105,4.94
X$23 6 7 8 15 16 custom_sram_1r1w_32_256_freepdk45_pand2_0
* cell instance $28 r0 *1 0,0
X$28 9 8 7 15 16 custom_sram_1r1w_32_256_freepdk45_dff_buf_array
* cell instance $34 r0 *1 6.105,0
X$34 7 14 15 16 custom_sram_1r1w_32_256_freepdk45_pdriver_1
.ENDS custom_sram_1r1w_32_256_freepdk45_control_logic_w

* cell custom_sram_1r1w_32_256_freepdk45_control_logic_r
* pin clk_buf
* pin csb
* pin wl_en
* pin s_en
* pin rbl_bl
* pin p_en_bar
* pin clk
* pin vdd
* pin gnd
.SUBCKT custom_sram_1r1w_32_256_freepdk45_control_logic_r 6 8 9 10 11 12 13 14
+ 15
* net 6 clk_buf
* net 8 csb
* net 9 wl_en
* net 10 s_en
* net 11 rbl_bl
* net 12 p_en_bar
* net 13 clk
* net 14 vdd
* net 15 gnd
* cell instance $1 r0 *1 7.0075,9.88
X$1 12 1 14 15 custom_sram_1r1w_32_256_freepdk45_pdriver_5
* cell instance $2 r0 *1 6.105,9.88
X$2 5 3 1 14 15 custom_sram_1r1w_32_256_freepdk45_pnand2_1
* cell instance $3 m0 *1 6.7925,4.94
X$3 4 2 7 14 15 custom_sram_1r1w_32_256_freepdk45_pand2_0
* cell instance $4 m0 *1 6.105,4.94
X$4 6 2 14 15 custom_sram_1r1w_32_256_freepdk45_pinv_4
* cell instance $5 m0 *1 6.105,9.88
X$5 10 3 4 7 14 15 custom_sram_1r1w_32_256_freepdk45_pand3_0
* cell instance $6 m0 *1 0,32.11
X$6 3 11 14 15 custom_sram_1r1w_32_256_freepdk45_delay_chain
* cell instance $11 m0 *1 6.105,14.82
X$11 9 4 14 15 custom_sram_1r1w_32_256_freepdk45_pdriver_2
* cell instance $18 r0 *1 6.105,4.94
X$18 5 6 7 14 15 custom_sram_1r1w_32_256_freepdk45_pand2_0
* cell instance $22 r0 *1 0,0
X$22 8 7 6 14 15 custom_sram_1r1w_32_256_freepdk45_dff_buf_array
* cell instance $25 r0 *1 6.105,0
X$25 6 13 14 15 custom_sram_1r1w_32_256_freepdk45_pdriver_1
.ENDS custom_sram_1r1w_32_256_freepdk45_control_logic_r

* cell custom_sram_1r1w_32_256_freepdk45_col_addr_dff
* pin din_0
* pin dout_0
* pin din_1
* pin dout_1
* pin clk
* pin vdd
* pin gnd
.SUBCKT custom_sram_1r1w_32_256_freepdk45_col_addr_dff 1 2 3 4 5 6 7
* net 1 din_0
* net 2 dout_0
* net 3 din_1
* net 4 dout_1
* net 5 clk
* net 6 vdd
* net 7 gnd
* cell instance $1 r0 *1 0,0
X$1 2 1 5 6 7 dff
* cell instance $2 r0 *1 2.86,0
X$2 4 3 5 6 7 dff
.ENDS custom_sram_1r1w_32_256_freepdk45_col_addr_dff

* cell custom_sram_1r1w_32_256_freepdk45_bank
* pin addr0_0
* pin din0_0
* pin din0_1
* pin din0_2
* pin din0_3
* pin din0_4
* pin din0_5
* pin din0_6
* pin din0_7
* pin din0_8
* pin din0_9
* pin din0_10
* pin din0_11
* pin din0_12
* pin din0_13
* pin din0_14
* pin din0_15
* pin din0_16
* pin din0_17
* pin din0_18
* pin din0_19
* pin din0_20
* pin din0_21
* pin din0_22
* pin din0_23
* pin din0_24
* pin din0_25
* pin din0_26
* pin din0_27
* pin din0_28
* pin din0_29
* pin din0_30
* pin din0_31
* pin w_en0
* pin addr0_1
* pin p_en_bar0
* pin rbl_bl_0_0
* pin addr0_2
* pin addr0_3
* pin addr0_4
* pin addr0_5
* pin addr0_6
* pin addr0_7
* pin wl_en0
* pin wl_en1
* pin addr1_7
* pin addr1_6
* pin addr1_5
* pin addr1_4
* pin addr1_3
* pin addr1_2
* pin rbl_bl_1_1
* pin dout1_0
* pin dout1_1
* pin dout1_2
* pin dout1_3
* pin dout1_4
* pin dout1_5
* pin dout1_6
* pin dout1_7
* pin dout1_8
* pin dout1_9
* pin dout1_10
* pin dout1_11
* pin dout1_12
* pin dout1_13
* pin dout1_14
* pin dout1_15
* pin dout1_16
* pin dout1_17
* pin dout1_18
* pin dout1_19
* pin dout1_20
* pin dout1_21
* pin dout1_22
* pin dout1_23
* pin dout1_24
* pin dout1_25
* pin dout1_26
* pin dout1_27
* pin dout1_28
* pin dout1_29
* pin dout1_30
* pin dout1_31
* pin s_en1
* pin p_en_bar1
* pin addr1_1
* pin addr1_0
* pin vdd
* pin gnd
.SUBCKT custom_sram_1r1w_32_256_freepdk45_bank 1 4 5 6 7 8 9 10 11 12 13 14 15
+ 16 17 18 19 20 21 22 23 24 25 26 27 28 29 30 31 32 33 34 35 36 37 39 41 299
+ 300 301 302 303 304 305 436 437 438 439 440 441 442 699 701 702 703 704 705
+ 706 707 708 709 710 711 712 713 714 715 716 717 718 719 720 721 722 723 724
+ 725 726 727 728 729 730 731 732 737 738 739 740 741 742
* net 1 addr0_0
* net 4 din0_0
* net 5 din0_1
* net 6 din0_2
* net 7 din0_3
* net 8 din0_4
* net 9 din0_5
* net 10 din0_6
* net 11 din0_7
* net 12 din0_8
* net 13 din0_9
* net 14 din0_10
* net 15 din0_11
* net 16 din0_12
* net 17 din0_13
* net 18 din0_14
* net 19 din0_15
* net 20 din0_16
* net 21 din0_17
* net 22 din0_18
* net 23 din0_19
* net 24 din0_20
* net 25 din0_21
* net 26 din0_22
* net 27 din0_23
* net 28 din0_24
* net 29 din0_25
* net 30 din0_26
* net 31 din0_27
* net 32 din0_28
* net 33 din0_29
* net 34 din0_30
* net 35 din0_31
* net 36 w_en0
* net 37 addr0_1
* net 39 p_en_bar0
* net 41 rbl_bl_0_0
* net 299 addr0_2
* net 300 addr0_3
* net 301 addr0_4
* net 302 addr0_5
* net 303 addr0_6
* net 304 addr0_7
* net 305 wl_en0
* net 436 wl_en1
* net 437 addr1_7
* net 438 addr1_6
* net 439 addr1_5
* net 440 addr1_4
* net 441 addr1_3
* net 442 addr1_2
* net 699 rbl_bl_1_1
* net 701 dout1_0
* net 702 dout1_1
* net 703 dout1_2
* net 704 dout1_3
* net 705 dout1_4
* net 706 dout1_5
* net 707 dout1_6
* net 708 dout1_7
* net 709 dout1_8
* net 710 dout1_9
* net 711 dout1_10
* net 712 dout1_11
* net 713 dout1_12
* net 714 dout1_13
* net 715 dout1_14
* net 716 dout1_15
* net 717 dout1_16
* net 718 dout1_17
* net 719 dout1_18
* net 720 dout1_19
* net 721 dout1_20
* net 722 dout1_21
* net 723 dout1_22
* net 724 dout1_23
* net 725 dout1_24
* net 726 dout1_25
* net 727 dout1_26
* net 728 dout1_27
* net 729 dout1_28
* net 730 dout1_29
* net 731 dout1_30
* net 732 dout1_31
* net 737 s_en1
* net 738 p_en_bar1
* net 739 addr1_1
* net 740 addr1_0
* net 741 vdd
* net 742 gnd
* cell instance $1 r0 *1 4.585,0.1375
X$1 2 3 38 40 1 37 741 742 custom_sram_1r1w_32_256_freepdk45_column_decoder
* cell instance $2 m0 *1 12.71,13.105
X$2 41 42 43 44 45 46 47 48 49 51 52 53 54 55 56 57 58 59 61 62 63 64 65 66 67
+ 68 69 70 71 72 73 74 75 77 79 81 83 84 85 86 87 88 89 90 91 93 95 97 98 99
+ 100 101 102 103 104 105 106 107 108 109 110 111 112 113 114 115 116 117 118
+ 119 120 121 123 124 125 126 127 128 129 130 131 133 135 136 137 138 139 140
+ 141 142 143 144 145 146 147 148 149 150 151 152 153 154 155 156 157 158 159
+ 160 161 162 163 164 165 166 167 168 169 171 172 173 174 175 176 177 178 179
+ 181 182 183 184 185 186 187 189 190 191 193 194 195 196 197 198 199 200 201
+ 202 203 204 205 206 207 208 209 211 212 213 214 215 216 217 218 219 220 221
+ 222 223 224 225 226 227 228 229 230 231 232 233 234 235 236 237 238 239 240
+ 241 242 243 244 245 246 247 248 249 251 253 254 255 256 257 258 259 260 261
+ 262 263 264 265 267 269 270 271 272 273 274 275 277 279 280 281 282 283 284
+ 285 286 287 288 289 290 291 292 293 294 295 296 297 298 50 60 76 78 80 82 92
+ 94 96 122 132 134 170 39 180 188 192 210 250 252 266 268 276 278 4 5 6 7 8 9
+ 10 11 12 13 14 15 16 17 18 19 36 3 40 38 2 20 21 22 23 24 25 26 27 28 29 30
+ 31 32 33 34 35 741 742 custom_sram_1r1w_32_256_freepdk45_port_data
* cell instance $11 r0 *1 12.71,13.105
X$11 356 359 363 366 369 345 344 332 329 335 337 321 311 308 315 318 326 323
+ 342 341 339 338 346 348 343 340 347 350 353 362 352 351 349 41 42 43 443 444
+ 44 45 445 446 46 47 447 448 48 49 449 450 50 51 451 452 52 53 453 454 54 55
+ 455 456 56 57 457 458 58 59 459 460 60 61 461 462 62 63 463 464 64 65 465 466
+ 66 67 467 468 68 69 469 470 70 71 471 472 72 73 473 474 74 75 475 476 76 77
+ 477 478 78 79 479 480 80 81 481 482 82 83 483 484 84 85 485 486 86 87 487 488
+ 88 89 489 490 90 91 491 492 92 93 493 494 94 95 495 496 96 97 497 498 98 99
+ 499 500 100 101 501 502 102 103 503 504 104 105 505 506 106 382 374 386 408
+ 371 380 427 378 383 423 405 396 393 395 373 392 399 397 398 394 379 385 404
+ 377 424 400 407 406 412 403 372 402 107 507 508 108 109 509 510 110 111 511
+ 512 112 113 513 514 114 115 515 516 116 117 517 518 118 119 519 520 120 121
+ 521 522 122 123 523 524 124 125 525 526 126 127 527 528 128 129 529 530 130
+ 131 531 532 132 133 533 534 134 135 535 536 136 137 537 538 138 139 539 540
+ 140 141 541 542 142 143 543 544 144 145 545 546 146 147 547 548 148 149 549
+ 550 150 151 551 552 152 153 553 554 154 155 555 556 156 157 557 558 158 159
+ 559 560 160 161 561 562 162 163 563 564 164 165 565 566 166 167 567 568 168
+ 169 569 570 170 171 571 572 172 173 573 574 174 175 575 576 176 177 577 578
+ 178 179 579 580 180 181 581 582 182 183 583 584 184 185 585 586 186 187 587
+ 588 188 189 589 590 190 191 591 592 192 193 593 594 194 195 595 596 196 197
+ 597 598 198 199 599 600 200 201 601 602 202 203 603 604 204 205 605 606 206
+ 207 607 608 208 209 609 610 210 211 611 612 212 213 613 614 214 215 615 616
+ 216 217 617 618 218 219 619 620 220 221 621 622 222 223 623 624 224 225 625
+ 626 226 227 627 628 228 229 629 630 230 231 631 632 232 233 633 634 234 235
+ 635 636 236 237 637 638 238 239 639 640 240 241 641 642 242 243 643 644 244
+ 245 645 646 246 247 647 648 248 249 649 650 250 251 651 652 252 253 653 654
+ 254 255 655 656 256 257 657 658 258 259 659 660 260 261 661 662 262 263 663
+ 664 264 265 665 666 266 267 667 668 268 269 669 670 270 271 671 672 272 273
+ 673 674 274 275 675 676 276 277 677 678 278 279 679 680 280 281 681 682 282
+ 283 683 684 284 285 685 686 286 287 687 688 288 289 689 690 290 291 691 692
+ 292 293 693 694 294 295 695 696 296 297 697 698 298 699 700 310 365 312 364
+ 313 354 355 361 336 357 334 316 314 317 370 306 319 360 307 368 320 309 367
+ 358 322 324 325 327 328 330 333 331 422 421 419 401 420 429 428 426 425 417
+ 391 390 389 388 387 376 384 381 418 416 415 414 413 411 410 409 435 434 375
+ 433 432 431 430 741 742 custom_sram_1r1w_32_256_freepdk45_global_bitcell_array
* cell instance $13 r0 *1 0,16.345
X$13 305 323 326 329 332 335 337 311 308 299 300 301 302 303 304 315 318 321
+ 356 359 363 366 369 345 344 343 340 347 350 353 362 352 351 349 348 346 338
+ 339 341 342 370 368 367 365 364 361 360 358 357 355 354 320 319 317 316 314
+ 306 307 309 310 312 313 336 334 333 331 330 328 327 325 324 322 741 742
+ custom_sram_1r1w_32_256_freepdk45_port_address
* cell instance $144 m90 *1 246.97,16.345
X$144 394 400 404 385 378 380 383 424 442 441 440 439 438 437 412 373 372 371
+ 374 408 423 427 386 382 379 377 407 406 403 402 396 393 395 397 398 399 392
+ 405 381 384 376 387 388 389 390 391 417 425 426 428 429 430 431 432 433 375
+ 434 435 409 410 411 413 414 415 416 418 419 420 421 436 422 401 741 742
+ custom_sram_1r1w_32_256_freepdk45_port_address_0
* cell instance $275 r0 *1 12.71,115.085
X$275 443 444 445 446 447 449 451 452 453 454 455 456 457 458 459 460 461 462
+ 463 464 465 466 467 468 469 471 472 473 474 475 477 478 479 480 481 482 483
+ 484 485 486 487 488 489 490 491 492 493 494 495 496 497 498 499 500 501 502
+ 503 504 505 506 507 508 509 511 512 513 515 516 517 518 519 520 521 522 523
+ 524 525 526 527 528 529 531 532 533 535 536 537 538 539 540 541 542 543 544
+ 545 546 547 549 550 551 552 553 554 555 556 557 558 559 560 561 562 563 564
+ 565 566 567 568 569 570 571 572 573 574 575 576 577 578 579 580 581 582 583
+ 584 585 587 588 589 590 591 592 593 595 596 597 598 599 600 601 602 603 604
+ 605 607 609 610 611 612 613 614 615 616 617 618 619 620 621 622 623 624 625
+ 626 627 628 629 630 631 633 634 635 636 637 638 639 640 641 642 643 644 645
+ 646 647 648 649 650 651 652 653 654 655 656 657 659 660 661 663 664 665 666
+ 667 668 669 670 671 672 673 674 675 676 677 678 679 680 681 682 683 684 685
+ 686 687 688 689 690 691 692 693 694 695 696 697 698 699 700 448 450 470 476
+ 510 514 530 534 548 738 586 594 606 608 632 658 662 701 702 703 704 705 706
+ 707 708 709 710 711 712 713 714 715 716 737 734 733 735 736 717 718 719 720
+ 721 722 723 724 725 726 727 728 729 730 731 732 741 742
+ custom_sram_1r1w_32_256_freepdk45_port_data_0
* cell instance $277 r180 *1 242.385,128.0525
X$277 735 736 733 734 740 739 741 742
+ custom_sram_1r1w_32_256_freepdk45_column_decoder
.ENDS custom_sram_1r1w_32_256_freepdk45_bank

* cell custom_sram_1r1w_32_256_freepdk45_pand3
* pin Z
* pin A
* pin B
* pin C
* pin vdd
* pin gnd
.SUBCKT custom_sram_1r1w_32_256_freepdk45_pand3 2 3 4 5 6 7
* net 2 Z
* net 3 A
* net 4 B
* net 5 C
* net 6 vdd
* net 7 gnd
* cell instance $1 r0 *1 0,0
X$1 3 4 5 1 6 7 custom_sram_1r1w_32_256_freepdk45_pnand3_0
* cell instance $2 r0 *1 0.965,0
X$2 2 1 6 7 custom_sram_1r1w_32_256_freepdk45_pdriver_3
.ENDS custom_sram_1r1w_32_256_freepdk45_pand3

* cell custom_sram_1r1w_32_256_freepdk45_pdriver_5
* pin Z
* pin A
* pin vdd
* pin gnd
.SUBCKT custom_sram_1r1w_32_256_freepdk45_pdriver_5 5 6 8 9
* net 5 Z
* net 6 A
* net 8 vdd
* net 9 gnd
* cell instance $1 r0 *1 1.375,0
X$1 1 2 8 9 custom_sram_1r1w_32_256_freepdk45_pinv_18
* cell instance $2 r0 *1 0.6875,0
X$2 7 1 8 9 custom_sram_1r1w_32_256_freepdk45_pinv_3
* cell instance $3 r0 *1 2.0625,0
X$3 2 3 8 9 custom_sram_1r1w_32_256_freepdk45_pinv_19
* cell instance $4 r0 *1 3.025,0
X$4 3 4 8 9 custom_sram_1r1w_32_256_freepdk45_pinv_20
* cell instance $5 r0 *1 4.8125,0
X$5 4 5 8 9 custom_sram_1r1w_32_256_freepdk45_pinv_21
* cell instance $6 r0 *1 0,0
X$6 6 7 8 9 custom_sram_1r1w_32_256_freepdk45_pinv_3
.ENDS custom_sram_1r1w_32_256_freepdk45_pdriver_5

* cell custom_sram_1r1w_32_256_freepdk45_pnand2_1
* pin A
* pin B
* pin Z
* pin vdd
* pin gnd
.SUBCKT custom_sram_1r1w_32_256_freepdk45_pnand2_1 1 2 3 4 5
* net 1 A
* net 2 B
* net 3 Z
* net 4 vdd
* net 5 gnd
* device instance $1 r0 *1 0.2325,2.21 PMOS_VTG
M$1 4 1 3 4 PMOS_VTG L=0.05U W=0.27U AS=0.034425P AD=0.022275P PS=0.795U
+ PD=0.435U
* device instance $2 r0 *1 0.4475,2.21 PMOS_VTG
M$2 3 2 4 4 PMOS_VTG L=0.05U W=0.27U AS=0.022275P AD=0.034425P PS=0.435U
+ PD=0.795U
* device instance $3 r0 *1 0.2325,0.215 NMOS_VTG
M$3 5 1 6 5 NMOS_VTG L=0.05U W=0.18U AS=0.02295P AD=0.01485P PS=0.615U PD=0.345U
* device instance $4 r0 *1 0.4475,0.215 NMOS_VTG
M$4 6 2 3 5 NMOS_VTG L=0.05U W=0.18U AS=0.01485P AD=0.02295P PS=0.345U PD=0.615U
.ENDS custom_sram_1r1w_32_256_freepdk45_pnand2_1

* cell custom_sram_1r1w_32_256_freepdk45_delay_chain
* pin out
* pin in
* pin vdd
* pin gnd
.SUBCKT custom_sram_1r1w_32_256_freepdk45_delay_chain 1 10 11 12
* net 1 out
* net 10 in
* net 11 vdd
* net 12 gnd
* cell instance $2 r0 *1 0.6875,19.76
X$2 1 37 11 12 custom_sram_1r1w_32_256_freepdk45_pinv_22
* cell instance $5 r0 *1 1.375,19.76
X$5 1 36 11 12 custom_sram_1r1w_32_256_freepdk45_pinv_22
* cell instance $8 r0 *1 2.0625,19.76
X$8 1 35 11 12 custom_sram_1r1w_32_256_freepdk45_pinv_22
* cell instance $11 r0 *1 2.75,19.76
X$11 1 34 11 12 custom_sram_1r1w_32_256_freepdk45_pinv_22
* cell instance $14 r0 *1 0,19.76
X$14 9 1 11 12 custom_sram_1r1w_32_256_freepdk45_pinv_22
* cell instance $17 r0 *1 1.375,0
X$17 2 29 11 12 custom_sram_1r1w_32_256_freepdk45_pinv_22
* cell instance $20 r0 *1 0.6875,0
X$20 2 46 11 12 custom_sram_1r1w_32_256_freepdk45_pinv_22
* cell instance $23 m0 *1 0,4.94
X$23 2 3 11 12 custom_sram_1r1w_32_256_freepdk45_pinv_22
* cell instance $25 r0 *1 2.0625,0
X$25 2 45 11 12 custom_sram_1r1w_32_256_freepdk45_pinv_22
* cell instance $28 r0 *1 2.75,0
X$28 2 47 11 12 custom_sram_1r1w_32_256_freepdk45_pinv_22
* cell instance $31 r0 *1 0,0
X$31 10 2 11 12 custom_sram_1r1w_32_256_freepdk45_pinv_22
* cell instance $34 m0 *1 2.0625,4.94
X$34 3 22 11 12 custom_sram_1r1w_32_256_freepdk45_pinv_22
* cell instance $37 r0 *1 0,4.94
X$37 3 4 11 12 custom_sram_1r1w_32_256_freepdk45_pinv_22
* cell instance $39 m0 *1 2.75,4.94
X$39 3 23 11 12 custom_sram_1r1w_32_256_freepdk45_pinv_22
* cell instance $42 m0 *1 0.6875,4.94
X$42 3 16 11 12 custom_sram_1r1w_32_256_freepdk45_pinv_22
* cell instance $47 m0 *1 1.375,4.94
X$47 3 13 11 12 custom_sram_1r1w_32_256_freepdk45_pinv_22
* cell instance $50 r0 *1 1.375,4.94
X$50 4 31 11 12 custom_sram_1r1w_32_256_freepdk45_pinv_22
* cell instance $55 r0 *1 2.75,4.94
X$55 4 33 11 12 custom_sram_1r1w_32_256_freepdk45_pinv_22
* cell instance $58 r0 *1 2.0625,4.94
X$58 4 32 11 12 custom_sram_1r1w_32_256_freepdk45_pinv_22
* cell instance $61 m0 *1 0,9.88
X$61 4 5 11 12 custom_sram_1r1w_32_256_freepdk45_pinv_22
* cell instance $63 r0 *1 0.6875,4.94
X$63 4 30 11 12 custom_sram_1r1w_32_256_freepdk45_pinv_22
* cell instance $66 m0 *1 2.0625,9.88
X$66 5 15 11 12 custom_sram_1r1w_32_256_freepdk45_pinv_22
* cell instance $69 r0 *1 0,9.88
X$69 5 6 11 12 custom_sram_1r1w_32_256_freepdk45_pinv_22
* cell instance $71 m0 *1 0.6875,9.88
X$71 5 27 11 12 custom_sram_1r1w_32_256_freepdk45_pinv_22
* cell instance $74 m0 *1 2.75,9.88
X$74 5 21 11 12 custom_sram_1r1w_32_256_freepdk45_pinv_22
* cell instance $79 m0 *1 1.375,9.88
X$79 5 14 11 12 custom_sram_1r1w_32_256_freepdk45_pinv_22
* cell instance $82 m0 *1 0,14.82
X$82 6 7 11 12 custom_sram_1r1w_32_256_freepdk45_pinv_22
* cell instance $84 r0 *1 2.0625,9.88
X$84 6 43 11 12 custom_sram_1r1w_32_256_freepdk45_pinv_22
* cell instance $87 r0 *1 0.6875,9.88
X$87 6 48 11 12 custom_sram_1r1w_32_256_freepdk45_pinv_22
* cell instance $92 r0 *1 1.375,9.88
X$92 6 44 11 12 custom_sram_1r1w_32_256_freepdk45_pinv_22
* cell instance $95 r0 *1 2.75,9.88
X$95 6 42 11 12 custom_sram_1r1w_32_256_freepdk45_pinv_22
* cell instance $100 m0 *1 2.75,14.82
X$100 7 24 11 12 custom_sram_1r1w_32_256_freepdk45_pinv_22
* cell instance $103 m0 *1 2.0625,14.82
X$103 7 25 11 12 custom_sram_1r1w_32_256_freepdk45_pinv_22
* cell instance $106 m0 *1 0.6875,14.82
X$106 7 28 11 12 custom_sram_1r1w_32_256_freepdk45_pinv_22
* cell instance $109 m0 *1 1.375,14.82
X$109 7 26 11 12 custom_sram_1r1w_32_256_freepdk45_pinv_22
* cell instance $112 r0 *1 0,14.82
X$112 7 8 11 12 custom_sram_1r1w_32_256_freepdk45_pinv_22
* cell instance $114 r0 *1 1.375,14.82
X$114 8 40 11 12 custom_sram_1r1w_32_256_freepdk45_pinv_22
* cell instance $117 r0 *1 0.6875,14.82
X$117 8 41 11 12 custom_sram_1r1w_32_256_freepdk45_pinv_22
* cell instance $120 r0 *1 2.0625,14.82
X$120 8 39 11 12 custom_sram_1r1w_32_256_freepdk45_pinv_22
* cell instance $123 r0 *1 2.75,14.82
X$123 8 38 11 12 custom_sram_1r1w_32_256_freepdk45_pinv_22
* cell instance $128 m0 *1 0,19.76
X$128 8 9 11 12 custom_sram_1r1w_32_256_freepdk45_pinv_22
* cell instance $130 m0 *1 1.375,19.76
X$130 9 19 11 12 custom_sram_1r1w_32_256_freepdk45_pinv_22
* cell instance $133 m0 *1 0.6875,19.76
X$133 9 20 11 12 custom_sram_1r1w_32_256_freepdk45_pinv_22
* cell instance $136 m0 *1 2.0625,19.76
X$136 9 18 11 12 custom_sram_1r1w_32_256_freepdk45_pinv_22
* cell instance $139 m0 *1 2.75,19.76
X$139 9 17 11 12 custom_sram_1r1w_32_256_freepdk45_pinv_22
.ENDS custom_sram_1r1w_32_256_freepdk45_delay_chain

* cell custom_sram_1r1w_32_256_freepdk45_pand3_0
* pin Z
* pin A
* pin B
* pin C
* pin vdd
* pin gnd
.SUBCKT custom_sram_1r1w_32_256_freepdk45_pand3_0 2 3 4 5 6 7
* net 2 Z
* net 3 A
* net 4 B
* net 5 C
* net 6 vdd
* net 7 gnd
* cell instance $1 r0 *1 0.965,0
X$1 2 1 6 7 custom_sram_1r1w_32_256_freepdk45_pdriver_4
* cell instance $2 r0 *1 0,0
X$2 3 4 5 1 6 7 custom_sram_1r1w_32_256_freepdk45_pnand3_0
.ENDS custom_sram_1r1w_32_256_freepdk45_pand3_0

* cell custom_sram_1r1w_32_256_freepdk45_pdriver_2
* pin Z
* pin A
* pin vdd
* pin gnd
.SUBCKT custom_sram_1r1w_32_256_freepdk45_pdriver_2 2 3 4 5
* net 2 Z
* net 3 A
* net 4 vdd
* net 5 gnd
* cell instance $1 r0 *1 0,0
X$1 3 1 4 5 custom_sram_1r1w_32_256_freepdk45_pinv_14
* cell instance $2 r0 *1 1.2375,0
X$2 1 2 4 5 custom_sram_1r1w_32_256_freepdk45_pinv_15
.ENDS custom_sram_1r1w_32_256_freepdk45_pdriver_2

* cell custom_sram_1r1w_32_256_freepdk45_pand2_0